Circuit: * C:\Users\tarko\Desktop\ece445\simulations\switching network\switching network.asc

WARNING: Node N008 is floating.

Early termination of direct N-R iteration.
Direct Newton iteration failed to find .op point.  (Use ".option noopiter" to skip.)
Starting Gmin stepping
Increasing initial diagonal Gmin to 100
Increasing initial diagonal Gmin to 1000
Increasing initial diagonal Gmin to 10000
Gmin = 10000
Gmin = 1073.74
Gmin = 115.292
Gmin = 12.3794
Gmin = 1.32923
vernier = 0.5
vernier = 0.25
vernier = 0.125
vernier = 0.0625
vernier = 0.03125
Gmin = 0.544452
vernier = 0.015625
vernier = 0.0078125
vernier = 0.00390625
vernier = 0.00195313
vernier = 0.000976563
vernier = 0.000488281
Gmin = 0
Gmin stepping failed

Starting source stepping with srcstepmethod=0
Could not converge to DC with sources off!
Starting source stepping with srcstepmethod=1
Source Step = 3.0303%
vernier = 0.25
Source Step = 0.0177557%
Source Step = 0.0473485%
Source Step = 0.0769413%
Source Step = 0.106534%
Source Step = 0.136127%
vernier = 0.00146484
Source Step = 0.170159%
Source Step = 0.214548%
Source Step = 0.258937%
Source Step = 0.303326%
Source Step = 0.347715%
vernier = 0.00219727
Source Step = 0.396544%
Source Step = 0.463127%
Source Step = 0.529711%
Source Step = 0.596295%
Source Step = 0.662879%
vernier = 0.0032959
Source Step = 0.732792%
Source Step = 0.832667%
Source Step = 0.932543%
Source Step = 1.03242%
Source Step = 1.13229%
Source Step = 1.23217%
vernier = 0.00494385
Source Step = 1.38198%
Source Step = 1.5318%
Source Step = 1.68161%
Source Step = 1.83142%
Source Step = 1.98124%
vernier = 0.00741577
Source Step = 2.19847%
Source Step = 2.42319%
Source Step = 2.64791%
Source Step = 2.87263%
Source Step = 3.09735%
vernier = 0.0111237
Source Step = 3.41196%
Source Step = 3.74904%
Source Step = 4.08612%
Source Step = 4.4232%
Source Step = 4.76028%
vernier = 0.0166855
Source Step = 5.21534%
Source Step = 5.72096%
Source Step = 6.22658%
Source Step = 6.7322%
Source Step = 7.23782%
vernier = 0.0250282
Source Step = 7.89513%
Source Step = 8.65356%
Source Step = 9.41199%
Source Step = 10.1704%
Source Step = 10.9289%
vernier = 0.0375423
Source Step = 11.8769%
Source Step = 13.0145%
Source Step = 14.1522%
Source Step = 15.2898%
Source Step = 16.4275%
vernier = 0.0563135
Source Step = 17.7927%
Source Step = 19.4991%
Source Step = 21.2056%
Source Step = 22.9121%
Source Step = 24.6185%
vernier = 0.0844703
Source Step = 26.581%
Source Step = 29.1407%
Source Step = 31.7004%
vernier = 0.0211176
Source Step = 31.4764%
Source Step = 31.5164%
Source Step = 31.5564%
Source Step = 31.5964%
Source Step = 31.6364%
vernier = 0.00197977
Source Step = 31.6864%
Source Step = 31.7464%
Source Step = 31.8064%
Source Step = 31.8664%
Source Step = 31.9264%
vernier = 0.00296966
Source Step = 31.9984%
Source Step = 32.0883%
Source Step = 32.1783%
Source Step = 32.2683%
Source Step = 32.3583%
vernier = 0.00445449
Source Step = 32.4618%
Source Step = 32.5968%
Source Step = 32.7318%
Source Step = 32.8668%
Source Step = 33.0017%
vernier = 0.00668173
Source Step = 33.1502%
Source Step = 33.3527%
Source Step = 33.5552%
Source Step = 33.7577%
Source Step = 33.9601%
vernier = 0.0100226
Source Step = 34.1727%
Source Step = 34.4764%
Source Step = 34.7802%
Source Step = 35.0839%
Source Step = 35.3876%
Source Step = 35.6913%
vernier = 0.0150339
Source Step = 36.1469%
Source Step = 36.6024%
Source Step = 37.058%
Source Step = 37.5136%
Source Step = 37.9692%
vernier = 0.0225508
Source Step = 38.6297%
Source Step = 39.3131%
Source Step = 39.9965%
Source Step = 40.6798%
Source Step = 41.3632%
vernier = 0.0338263
Source Step = 42.3199%
Source Step = 43.3449%
Source Step = 44.37%
Source Step = 45.395%
Source Step = 46.42%
vernier = 0.0507394
Source Step = 47.8038%
Source Step = 49.3414%
Source Step = 50.879%
Source Step = 52.4165%
Source Step = 53.9541%
vernier = 0.0761091
Source Step = 55.9529%
Source Step = 58.2592%
Source Step = 60.5656%
Source Step = 62.8719%
Source Step = 65.1782%
vernier = 0.114164
Source Step = 68.0612%
Source Step = 71.5207%
Source Step = 74.9802%
Source Step = 78.4397%
Source Step = 81.8992%
vernier = 0.171245
Source Step = 86.0506%
Source Step = 91.2398%
Source Step = 92.4723%
Source Step = 92.7966%
Source Step = 93.1209%
Source Step = 93.4453%
Source Step = 93.7696%
vernier = 0.0160543
Source Step = 94.175%
Source Step = 94.6615%
Source Step = 95.148%
Source Step = 95.6345%
Source Step = 96.121%
vernier = 0.0240814
Source Step = 96.7048%
Source Step = 97.4345%
Source Step = 98.1642%
Source Step = 98.894%
Source Step = 99.6237%
Source stepping succeeded in finding the operating point.


Date: Tue Feb 22 01:13:10 2022
Total elapsed time: 1.074 seconds.

tnom = 27
temp = 27
method = modified trap
totiter = 16435
traniter = 3594
tranpoints = 1345
accept = 1254
rejected = 91
matrix size = 86
fillins = 307
solver = Normal
Thread vector: 18.4/12.5[4] 9.7/6.4[3] 1.8/6.4[1] 0.6/5.9[1]  2592/500
Matrix Compiler1: 36.01 KB object code size  6.2/3.7/[1.8]
Matrix Compiler2: off  [3.3]/3.9/4.3

