Circuit: * C:\Users\tarko\Desktop\ece445\simulations\switching network\switching network.asc

WARNING: Node N009 is floating.

Direct Newton iteration failed to find .op point.  (Use ".option noopiter" to skip.)
Starting Gmin stepping
Increasing initial diagonal Gmin to 100
Increasing initial diagonal Gmin to 1000
Increasing initial diagonal Gmin to 10000
Gmin = 10000
Gmin = 1073.74
Gmin = 115.292
Gmin = 12.3794
Gmin = 1.32923
vernier = 0.5
vernier = 0.25
vernier = 0.125
vernier = 0.0625
vernier = 0.03125
Gmin = 0.544452
vernier = 0.015625
vernier = 0.0078125
vernier = 0.00390625
vernier = 0.00195313
vernier = 0.000976563
vernier = 0.000488281
Gmin = 0
Gmin stepping failed

Starting source stepping with srcstepmethod=0
Source Step = 3.0303%
Source Step = 6.06357%
Source Step = 6.09316%
Source Step = 6.12275%
Source Step = 6.15234%
Source Step = 6.18194%
Source Step = 6.21153%
vernier = 0.00146484
Source Step = 6.25296%
Source Step = 6.29735%
Source Step = 6.34174%
Source Step = 6.38613%
Source Step = 6.43052%
vernier = 0.00219727
Source Step = 6.49044%
Source Step = 6.55703%
Source Step = 6.62361%
Source Step = 6.69019%
Source Step = 6.75678%
vernier = 0.0032959
Source Step = 6.84334%
Source Step = 6.94321%
Source Step = 7.04309%
Source Step = 7.14296%
Source Step = 7.24284%
vernier = 0.00494385
Source Step = 7.36768%
Source Step = 7.5175%
Source Step = 7.66731%
Source Step = 7.81712%
Source Step = 7.96694%
vernier = 0.00741577
Source Step = 8.14671%
Source Step = 8.37143%
Source Step = 8.59615%
Source Step = 8.82087%
Source Step = 9.0456%
vernier = 0.0111237
Source Step = 9.30402%
Source Step = 9.6411%
Source Step = 9.97818%
Source Step = 10.3153%
Source Step = 10.6523%
vernier = 0.0166855
Source Step = 11.0231%
Source Step = 11.5288%
Source Step = 12.0344%
Source Step = 12.54%
Source Step = 13.0456%
vernier = 0.0250282
Source Step = 13.5765%
Source Step = 14.335%
Source Step = 15.0934%
Source Step = 15.8518%
Source Step = 16.6102%
Source Step = 17.3687%
vernier = 0.0375423
Source Step = 18.5063%
Source Step = 19.644%
Source Step = 20.7816%
Source Step = 21.9193%
Source Step = 23.0569%
vernier = 0.0563135
Source Step = 24.7065%
Source Step = 26.413%
Source Step = 28.1194%
Source Step = 29.8259%
Source Step = 31.5324%
vernier = 0.0844703
Source Step = 33.4735%
vernier = 0.00527939
Source Step = 33.4455%
Source Step = 33.4855%
Source Step = 33.5255%
Source Step = 33.5655%
Source Step = 33.6055%
vernier = 0.00197977
Source Step = 33.6575%
Source Step = 33.7175%
Source Step = 33.7775%
Source Step = 33.8374%
Source Step = 33.8974%
vernier = 0.00296966
Source Step = 33.9724%
Source Step = 34.0624%
Source Step = 34.1524%
Source Step = 34.2424%
Source Step = 34.3324%
vernier = 0.00445449
Source Step = 34.4404%
Source Step = 34.5754%
Source Step = 34.7103%
Source Step = 34.8453%
Source Step = 34.9803%
vernier = 0.00668173
Source Step = 35.1355%
Source Step = 35.338%
Source Step = 35.5405%
Source Step = 35.743%
Source Step = 35.9455%
vernier = 0.0100226
Source Step = 36.1682%
Source Step = 36.4719%
Source Step = 36.7756%
Source Step = 37.0793%
Source Step = 37.383%
vernier = 0.0150339
Source Step = 37.7019%
Source Step = 38.1575%
Source Step = 38.6131%
Source Step = 39.0687%
Source Step = 39.5242%
Source Step = 39.9798%
vernier = 0.0225508
Source Step = 40.6632%
Source Step = 41.3465%
Source Step = 42.0299%
Source Step = 42.7132%
Source Step = 43.3966%
vernier = 0.0338263
Source Step = 44.3875%
Source Step = 45.4125%
Source Step = 46.4375%
Source Step = 47.4626%
Source Step = 48.4876%
vernier = 0.0507394
Source Step = 49.9227%
Source Step = 51.4602%
Source Step = 52.9978%
Source Step = 54.5353%
Source Step = 56.0729%
vernier = 0.0761091
Source Step = 58.1486%
Source Step = 60.4549%
Source Step = 62.7613%
Source Step = 65.0676%
Source Step = 67.3739%
vernier = 0.114164
Source Step = 70.3722%
Source Step = 73.8317%
Source Step = 77.2912%
Source Step = 80.7507%
Source Step = 84.2102%
vernier = 0.171245
Source Step = 88.5346%
Source Step = 91.713%
Source Step = 92.0373%
Source Step = 92.3617%
Source Step = 92.686%
Source Step = 93.0103%
vernier = 0.0160543
Source Step = 93.3509%
Source Step = 93.8373%
Source Step = 94.3238%
Source Step = 94.8103%
Source Step = 95.2968%
Source Step = 95.7833%
vernier = 0.0240814
Source Step = 95.9475%
Source Step = 96.1299%
Source Step = 96.3124%
Source Step = 96.4948%
Source Step = 96.6773%
vernier = 0.00903052
Source Step = 96.9327%
Source Step = 97.2063%
Source Step = 97.48%
Source Step = 97.7536%
Source Step = 98.0273%
vernier = 0.0135458
Source Step = 98.3967%
Source Step = 98.8072%
Source Step = 99.2177%
Source Step = 99.6281%
Source Step = 100%
vernier = 0.00338645
Source Step = 99.0207%
Source Step = 99.0463%
Source Step = 99.072%
Source Step = 99.0976%
Source Step = 99.1233%
vernier = 0.00126992
Source Step = 99.1553%
Source Step = 99.1938%
Source Step = 99.2323%
Source Step = 99.2708%
Source Step = 99.3093%
vernier = 0.00190488
Source Step = 99.3554%
Source Step = 99.4132%
Source Step = 99.4709%
Source Step = 99.5286%
Source Step = 99.5863%
vernier = 0.00285731
Source Step = 99.6527%
Source Step = 99.7393%
Source Step = 99.8259%
Source Step = 99.9125%
Source Step = 99.9991%
Source Step = 100%
Source Step = 100%
Source Step = 100%
Source Step = 100%
Source Step = 100%
Source Step = 100%
Source Step = 100%
Source Step = 100%
Source Step = 100%
Source Step = 100%
Source Step = 100%
Source Step = 100%
Source Step = 100%
Source Step = 100%
Source Step = 100%
Source Step = 100%
Source Step = 100%
Source Step = 100%
Source Step = 100%
Source Step = 100%
Source Step = 100%
Source Step = 100%
Source Step = 100%
Source Step = 100%
Source Step = 100%
Source Step = 100%
Source Step = 100%
Source Step = 100%
Source Step = 100%
Source Step = 100%
Source Step = 100%
Source Step = 100%
Source Step = 100%
Source Step = 100%
Source Step = 100%
Source Step = 100%
Source Step = 100%
Source Step = 100%
Source Step = 100%
Source Step = 100%
Source Step = 100%
Source Step = 100%
Source Step = 100%
Source Step = 100%
Source Step = 100%
Source Step = 100%
Source Step = 100%
Source Step = 100%
Source Step = 100%
Source Step = 100%
Source Step = 100%
Source Step = 100%
Source Step = 100%
Source Step = 100%
Source Step = 100%
Source Step = 100%
Source Step = 100%
Source Step = 100%
Source Step = 100%
Source Step = 100%
Source Step = 100%
Source Step = 100%
Source Step = 100%
Source Step = 100%
Source Step = 100%
Source Step = 100%
Source Step = 100%
Source Step = 100%
Source Step = 100%
Source Step = 100%
Source Step = 100%
Source Step = 100%
Source Step = 100%
Source Step = 100%
Source Step = 100%
Source Step = 100%
Source Step = 100%
Source Step = 100%
Source Step = 100%
Source Step = 100%
Source Step = 100%
Source Step = 100%
Source Step = 100%
Source Step = 100%
Source Step = 100%
Source Step = 100%
Source Step = 100%
Source Step = 100%
Source stepping succeeded in finding the operating point.

Heightened Def Con from 4.94792e-005 to 4.94832e-005

Date: Mon Feb 21 17:59:41 2022
Total elapsed time: 51.986 seconds.

tnom = 27
temp = 27
method = modified trap
totiter = 81596
traniter = 5210
tranpoints = 1519
accept = 1357
rejected = 163
matrix size = 86
fillins = 614
solver = Normal
Thread vector: 55.2/16.3[4] 7.0/12.4[1] 6.6/4.0[4] 0.5/1.6[1]  2592/500
Matrix Compiler1: 94.75 KB object code size  19.4/11.9/[7.8]
Matrix Compiler2: 19.20 KB object code size  2.4/3.8/[0.7]

