Circuit: * E:\Documents\_Stuff\_School\Senior\second_sem\ece445\git\simulations\3v3 buck\3v3 buck.asc

Questionable use of curly braces in "b§e_abmgate yint 0 v={if(v(a)>{{vthresh}}|v(b)>{{vthresh}},{{vdd}},{{vss}})}"
    Error: undefined symbol in: "if([v](a)>((vthresh))|v(b)>((vthresh)),((vdd)),((vss)))"
Questionable use of curly braces in "b§e_abmgate yint 0 v={if(v(a)>{{vthresh}}&v(b)>{{vthresh}},{{vss}},{{vdd}})}"
    Error: undefined symbol in: "if([v](a)>((vthresh))&v(b)>((vthresh)),((vss)),((vdd)))"
Questionable use of curly braces in "b§e_abmgate yint 0 v={if(v(a)>{{vthresh}}&v(b)>{{vthresh}},{{vdd}},{{vss}})}"
    Error: undefined symbol in: "if([v](a)>((vthresh))&v(b)>((vthresh)),((vdd)),((vss)))"
Questionable use of curly braces in "b§e_abmgate yint 0 v={if(v(a)>{{vthresh}}|v(b)>{{vthresh}}|v(c)>{{vthresh}},{{vss}},{{vdd}})}"
    Error: undefined symbol in: "if([v](a)>((vthresh))|v(b)>((vthresh))|v(c)>((vthresh)),((vss)),((vdd)))"
Questionable use of curly braces in "b§e_abmgate yint 0 v={if(v(a)>{{vthresh}},{{vdd}},{{vss}})}"
    Error: undefined symbol in: "if([v](a)>((vthresh)),((vdd)),((vss)))"
WARNING: Less than two connections to node NC_01.  This node is used by R:U2:NC_0.
WARNING: Less than two connections to node NC_02.  This node is used by R:U2:NC_1.
WARNING: Less than two connections to node NC_03.  This node is used by R:U2:NC_2.
WARNING: Less than two connections to node NC_04.  This node is used by R:U2:NC_3.
WARNING: Less than two connections to node NC_05.  This node is used by R:U2:NC_4.
WARNING: Less than two connections to node NC_06.  This node is used by R:U2:NC_5.
WARNING: Less than two connections to node NC_07.  This node is used by R:U2:NC_6.
WARNING: Less than two connections to node NC_08.  This node is used by R:U2:NC_7.
WARNING: Less than two connections to node NC_09.  This node is used by R:U2:NC_8.
Direct Newton iteration for .op point succeeded.
Ignoring empty pin current: Ix(u2:fb)
Ignoring empty pin current: Ix(u2:fb)

Date: Fri Feb 18 15:39:52 2022
Total elapsed time: 22.343 seconds.

tnom = 27
temp = 27
method = modified trap
totiter = 2024296
traniter = 2024289
tranpoints = 757452
accept = 554189
rejected = 203263
matrix size = 118
fillins = 53
solver = Normal
Thread vector: 10.2/5.1[2] 1.3/1.2[2] 2.6/1.4[2] 0.2/0.4[1]  2592/500
Matrix Compiler1: 5.25 KB object code size  1.4/0.7/[0.4]
Matrix Compiler2: 7.79 KB object code size  0.7/1.4/[0.4]

