Circuit: * C:\Users\tarko\Desktop\ece445\simulations\new switching network\new switching network.asc

C2: Increased Cpar to 4.7e-010
C6: Increased Cpar to 4.7e-010
Direct Newton iteration failed to find .op point.  (Use ".option noopiter" to skip.)
Starting Gmin stepping
Increasing initial diagonal Gmin to 100
Increasing initial diagonal Gmin to 1000
Gmin = 1000
Gmin = 107.374
Gmin = 11.5292
Gmin = 1.23794
Gmin = 0.132923
Gmin = 0.0142725
Gmin = 0.0015325
Gmin = 0.00016455
Gmin = 1.76685e-005
Gmin = 1.89714e-006
Gmin = 2.03704e-007
Gmin = 2.18725e-008
Gmin = 2.34854e-009
Gmin = 2.52173e-010
Gmin = 2.70769e-011
Gmin = 2.90735e-012
Gmin = 3.12175e-013
Gmin = 0
Gmin stepping succeeded in finding the operating point.


Date: Wed Feb 23 14:09:29 2022
Total elapsed time: 0.619 seconds.

tnom = 27
temp = 27
method = modified trap
totiter = 4336
traniter = 3516
tranpoints = 1327
accept = 1244
rejected = 83
matrix size = 73
fillins = 52
solver = Normal
Thread vector: 16.8/13.3[4] 9.8/4.6[4] 4.9/3.1[4] 0.8/8.1[1]  2592/500
Matrix Compiler1: 7.29 KB object code size  2.4/1.4/[0.6]
Matrix Compiler2: 7.36 KB object code size  4.4/9.6/[1.4]

