Circuit: * C:\Users\tarko\Desktop\ece445\simulations\24v sepic\24v sepic.asc

Direct Newton iteration failed to find .op point.  (Use ".option noopiter" to skip.)
Starting Gmin stepping
Gmin = 10
Gmin = 1.07374
Gmin = 0.115292
Gmin = 0.0123794
Gmin = 0.00132923
Gmin = 0.000142725
Gmin = 1.5325e-005
Gmin = 1.6455e-006
Gmin = 1.76685e-007
Gmin = 1.89714e-008
Gmin = 2.03704e-009
Gmin = 2.18725e-010
Gmin = 2.34854e-011
Gmin = 2.52173e-012
Gmin = 2.70769e-013
Gmin = 0
Gmin stepping succeeded in finding the operating point.

Ignoring empty pin current: Ix(u2:5)
Ignoring empty pin current: Ix(u2:5)
Heightened Def Con from 0.00088908 to 0.000889084
Heightened Def Con from 0.00131988 to 0.00131988
Heightened Def Con from 0.0013906 to 0.00139061
Heightened Def Con from 0.00150312 to 0.00150312
Heightened Def Con from 0.00158027 to 0.00158028
