Circuit: * C:\Users\tarko\Desktop\ece445\simulations\24v sepic\24v sepic.asc

Direct Newton iteration failed to find .op point.  (Use ".option noopiter" to skip.)
Starting Gmin stepping
Gmin = 10
Gmin = 1.07374
Gmin = 0.115292
Gmin = 0.0123794
Gmin = 0.00132923
Gmin = 0.000142725
Gmin = 1.5325e-005
Gmin = 1.6455e-006
Gmin = 1.76685e-007
Gmin = 1.89714e-008
Gmin = 2.03704e-009
Gmin = 2.18725e-010
Gmin = 2.34854e-011
Gmin = 2.52173e-012
Gmin = 2.70769e-013
Gmin = 0
Gmin stepping succeeded in finding the operating point.

Ignoring empty pin current: Ix(u2:5)
Ignoring empty pin current: Ix(u2:5)
Heightened Def Con from 0.00088908 to 0.000889084
Heightened Def Con from 0.00131988 to 0.00131988
Heightened Def Con from 0.0013906 to 0.00139061
Heightened Def Con from 0.00150312 to 0.00150312
Heightened Def Con from 0.00158027 to 0.00158028
Heightened Def Con from 0.003207 to 0.00320701
Heightened Def Con from 0.00364102 to 0.00364102
Heightened Def Con from 0.00404288 to 0.00404288
Heightened Def Con from 0.00455083 to 0.00455084
Heightened Def Con from 0.00462799 to 0.00462799
Heightened Def Con from 0.00486267 to 0.00486268
Heightened Def Con from 0.00490636 to 0.00490636

Date: Wed Feb 23 20:44:38 2022
Total elapsed time: 19.996 seconds.

tnom = 27
temp = 27
method = modified trap
totiter = 2581786
traniter = 2581308
tranpoints = 692683
accept = 522446
rejected = 170249
matrix size = 42
fillins = 14
solver = Normal
Matrix Compiler1: 2.51 KB object code size  0.7/0.4/[0.2]
Matrix Compiler2: 3.10 KB object code size  0.7/0.7/[0.4]

