Circuit: * C:\Users\tarko\Desktop\ece445\simulations\24v sepic\24v sepic.asc

Direct Newton iteration failed to find .op point.  (Use ".option noopiter" to skip.)
Starting Gmin stepping
Gmin = 10
Gmin = 1.07374
Gmin = 0.115292
Gmin = 0.0123794
Gmin = 0.00132923
Gmin = 0.000142725
Gmin = 1.5325e-005
Gmin = 1.6455e-006
Gmin = 1.76685e-007
Gmin = 1.89714e-008
Gmin = 2.03704e-009
Gmin = 2.18725e-010
Gmin = 2.34854e-011
Gmin = 2.52173e-012
Gmin = 2.70769e-013
Gmin = 0
Gmin stepping succeeded in finding the operating point.

Ignoring empty pin current: Ix(u2:5)
Ignoring empty pin current: Ix(u2:5)
Heightened Def Con from 0.000344965 to 0.000344969
Heightened Def Con from 0.0014445 to 0.00144451
Heightened Def Con from 0.00151201 to 0.00151202
Heightened Def Con from 0.00158792 to 0.00158792

Date: Thu Feb 24 00:37:14 2022
Total elapsed time: 8.037 seconds.

tnom = 27
temp = 27
method = modified trap
totiter = 790510
traniter = 790032
tranpoints = 212112
accept = 159206
rejected = 52910
matrix size = 42
fillins = 14
solver = Normal
Thread vector: 6.6/5.7[2] 3.3/5.1[1] 0.5/3.0[1] 0.2/2.4[1]  2592/500
Matrix Compiler1: 2.51 KB object code size  1.1/0.6/[0.3]
Matrix Compiler2: 3.10 KB object code size  0.6/1.9/[0.4]

