Circuit: * C:\Users\tarko\Desktop\ece445\simulations\24v sepic\24v sepic.asc

Direct Newton iteration failed to find .op point.  (Use ".option noopiter" to skip.)
Starting Gmin stepping
Gmin = 10
Gmin = 1.07374
Gmin = 0.115292
Gmin = 0.0123794
Gmin = 0.00132923
Gmin = 0.000142725
Gmin = 1.5325e-005
vernier = 0.5
Gmin = 4.35418e-006
vernier = 0.666667
vernier = 0.888888
Gmin = 7.73794e-007
vernier = 1
Gmin = 8.6905e-008
Gmin = 9.33136e-009
Gmin = 1.00195e-009
Gmin = 1.07583e-010
Gmin = 1.15517e-011
Gmin = 1.24035e-012
Gmin = 1.33182e-013
Gmin = 0
Gmin stepping succeeded in finding the operating point.

Ignoring empty pin current: Ix(u2:5)
Ignoring empty pin current: Ix(u2:5)

Date: Wed Feb 23 14:27:37 2022
Total elapsed time: 6.639 seconds.

tnom = 27
temp = 27
method = modified trap
totiter = 702752
traniter = 702180
tranpoints = 187953
accept = 141190
rejected = 46763
matrix size = 42
fillins = 14
solver = Normal
Thread vector: 7.8/3.7[2] 2.4/2.4[1] 0.5/1.2[1] 0.4/46.8[1]  2592/500
Matrix Compiler1: 2.51 KB object code size  1.2/0.7/[0.4]
Matrix Compiler2: 3.10 KB object code size  1.9/2.4/[0.9]

