Circuit: * C:\Users\tarko\Desktop\ece445\simulations\another switching network\another switching network.asc

V1: Removing PWL point (0.005,0)
Direct Newton iteration for .op point succeeded.
Ignoring empty pin current: Ix(u1:6)
Ignoring empty pin current: Ix(u1:7)
Ignoring empty pin current: Ix(u1:8)
Ignoring empty pin current: Ix(u1:9)
Ignoring empty pin current: Ix(u1:10)
Ignoring empty pin current: Ix(u1:12)
Ignoring empty pin current: Ix(u1:13)
Ignoring empty pin current: Ix(u1:14)
Ignoring empty pin current: Ix(u1:15)
Ignoring empty pin current: Ix(u2:6)
Ignoring empty pin current: Ix(u2:7)
Ignoring empty pin current: Ix(u2:8)
Ignoring empty pin current: Ix(u2:9)
Ignoring empty pin current: Ix(u2:10)
Ignoring empty pin current: Ix(u2:12)
Ignoring empty pin current: Ix(u2:13)
Ignoring empty pin current: Ix(u2:14)
Ignoring empty pin current: Ix(u2:15)
Ignoring empty pin current: Ix(u1:6)
Ignoring empty pin current: Ix(u1:7)
Ignoring empty pin current: Ix(u1:8)
Ignoring empty pin current: Ix(u1:9)
Ignoring empty pin current: Ix(u1:10)
Ignoring empty pin current: Ix(u1:12)
Ignoring empty pin current: Ix(u1:13)
Ignoring empty pin current: Ix(u1:14)
Ignoring empty pin current: Ix(u1:15)
Ignoring empty pin current: Ix(u2:6)
Ignoring empty pin current: Ix(u2:7)
Ignoring empty pin current: Ix(u2:8)
Ignoring empty pin current: Ix(u2:9)
Ignoring empty pin current: Ix(u2:10)
Ignoring empty pin current: Ix(u2:12)
Ignoring empty pin current: Ix(u2:13)
Ignoring empty pin current: Ix(u2:14)
Ignoring empty pin current: Ix(u2:15)

Date: Thu Feb 24 02:11:21 2022
Total elapsed time: 0.338 seconds.

tnom = 27
temp = 27
method = modified trap
totiter = 4226
traniter = 4202
tranpoints = 1609
accept = 1482
rejected = 127
matrix size = 83
fillins = 8
solver = Normal
Thread vector: 40.6/28.0[2] 10.5/10.8[1] 2.7/4.0[1] 1.0/76.8[1]  2592/500
Matrix Compiler1: 3.24 KB object code size  6.2/2.3/[0.9]
Matrix Compiler2: 5.42 KB object code size  2.2/3.3/[0.9]

