Circuit: * E:\Documents\_Stuff\_School\Senior\second_sem\ece445\git\simulations\another switching network\another switching network.asc

V1: Removing PWL point (0.005,0)
Direct Newton iteration for .op point succeeded.
Ignoring empty pin current: Ix(u1:6)
Ignoring empty pin current: Ix(u1:7)
Ignoring empty pin current: Ix(u1:8)
Ignoring empty pin current: Ix(u1:9)
Ignoring empty pin current: Ix(u1:10)
Ignoring empty pin current: Ix(u1:12)
Ignoring empty pin current: Ix(u1:13)
Ignoring empty pin current: Ix(u1:14)
Ignoring empty pin current: Ix(u1:15)
Ignoring empty pin current: Ix(u2:6)
Ignoring empty pin current: Ix(u2:7)
Ignoring empty pin current: Ix(u2:8)
Ignoring empty pin current: Ix(u2:9)
Ignoring empty pin current: Ix(u2:10)
Ignoring empty pin current: Ix(u2:12)
Ignoring empty pin current: Ix(u2:13)
Ignoring empty pin current: Ix(u2:14)
Ignoring empty pin current: Ix(u2:15)
Ignoring empty pin current: Ix(u1:6)
Ignoring empty pin current: Ix(u1:7)
Ignoring empty pin current: Ix(u1:8)
Ignoring empty pin current: Ix(u1:9)
Ignoring empty pin current: Ix(u1:10)
Ignoring empty pin current: Ix(u1:12)
Ignoring empty pin current: Ix(u1:13)
Ignoring empty pin current: Ix(u1:14)
Ignoring empty pin current: Ix(u1:15)
Ignoring empty pin current: Ix(u2:6)
Ignoring empty pin current: Ix(u2:7)
Ignoring empty pin current: Ix(u2:8)
Ignoring empty pin current: Ix(u2:9)
Ignoring empty pin current: Ix(u2:10)
Ignoring empty pin current: Ix(u2:12)
Ignoring empty pin current: Ix(u2:13)
Ignoring empty pin current: Ix(u2:14)
Ignoring empty pin current: Ix(u2:15)

Date: Tue Mar 01 03:16:47 2022
Total elapsed time: 0.156 seconds.

tnom = 27
temp = 27
method = modified trap
totiter = 4225
traniter = 4201
tranpoints = 1609
accept = 1482
rejected = 127
matrix size = 83
fillins = 8
solver = Normal
Matrix Compiler1: 3.24 KB object code size  0.9/0.6/[0.5]
Matrix Compiler2: 5.42 KB object code size  0.5/0.8/[0.4]

